3d20_ligand
  -I-interpret- 

 75 78  0  0  0  0  0  0  0  0999 V2000
    8.1160   14.3490   14.1960 N   0  0  0  0  0
    8.6440   15.5450   14.6020 C   0  0  0  0  0
    9.9760   15.8360   14.2900 C   0  0  0  0  0
   10.4970   17.0220   14.6930 C   0  0  0  0  0
    9.7360   17.9480   15.4070 C   0  0  0  0  0
    8.4220   17.6880   15.7250 C   0  0  0  0  0
    7.8320   16.4590   15.3260 C   0  0  0  0  0
   10.6250   19.3350   16.0840 S   0  0  0  0  0
   11.7300   19.5680   15.2000 O   0  0  0  0  0
    9.6790   20.3790   16.3190 O   0  0  0  0  0
   11.2530   18.9100   17.5790 N   0  0  0  0  0
   10.3020   18.6560   18.6580 C   0  0  0  0  0
   10.6610   19.2800   20.0120 C   0  0  0  0  0
   10.6970   20.8020   19.9450 C   0  0  0  0  0
    9.7140   18.7750   21.1010 C   0  0  0  0  0
   12.5730   18.2800   17.6490 C   0  0  0  0  0
   13.6930   19.2040   18.1700 C   0  0  0  0  0
   14.8190   18.3940   18.4620 O   0  0  0  0  0
   14.1020   20.3310   17.2110 C   0  0  0  0  0
   15.0100   21.2060   17.9610 N   0  0  0  0  0
   14.6350   22.4890   18.2550 C   0  0  0  0  0
   13.5790   23.0510   17.9210 O   0  0  0  0  0
   15.6070   23.0830   18.9850 O   0  0  0  0  0
   15.5490   24.5040   19.2320 C   0  0  0  0  0
   16.2190   24.7410   20.5930 C   0  0  0  0  0
   17.6190   24.6700   20.3010 O   0  0  0  0  0
   17.8640   25.2110   18.9930 C   0  0  0  0  0
   18.6910   24.3040   18.2940 O   0  0  0  0  0
   17.9690   23.7420   17.2010 C   0  0  0  0  0
   16.7760   24.6200   16.9270 C   0  0  0  0  0
   16.4920   25.2860   18.2510 C   0  0  0  0  0
   14.8750   19.8270   15.9520 C   0  0  0  0  0
   16.5900   21.3500   14.8810 C   0  0  0  0  0
   16.9820   22.4160   14.0690 C   0  0  0  0  0
   15.9830   23.1230   13.4320 C   0  0  0  0  0
   14.6700   22.7920   13.5890 C   0  0  0  0  0
   14.2850   21.7480   14.3860 C   0  0  0  0  0
   15.2560   20.9850   15.0650 C   0  0  0  0  0
    8.6980   13.6809   13.6707 H   0  0  0  0  0
    7.1368   14.1172   14.4158 H   0  0  0  0  0
   10.5809   15.1270   13.7364 H   0  0  0  0  0
   11.5284   17.2556   14.4547 H   0  0  0  0  0
    7.8405   18.4175   16.2771 H   0  0  0  0  0
    6.8004   16.2270   15.5650 H   0  0  0  0  0
   10.2275   17.5672   18.7953 H   0  0  0  0  0
    9.3243   19.0545   18.3494 H   0  0  0  0  0
   11.6747   18.9422   20.2735 H   0  0  0  0  0
   10.9575   21.2065   20.9342 H   0  0  0  0  0
    9.7087   21.1792   19.6433 H   0  0  0  0  0
   11.4508   21.1189   19.2092 H   0  0  0  0  0
    9.7210   17.6751   21.1118 H   0  0  0  0  0
    8.6945   19.1332   20.8954 H   0  0  0  0  0
   10.0452   19.1533   22.0793 H   0  0  0  0  0
   12.8474   17.9428   16.6386 H   0  0  0  0  0
   12.5043   17.4108   18.3196 H   0  0  0  0  0
   13.3391   19.6729   19.1000 H   0  0  0  0  0
   15.5261   18.9396   18.7859 H   0  0  0  0  0
   13.2060   20.8828   16.8905 H   0  0  0  0  0
   15.9023   20.8652   18.2572 H   0  0  0  0  0
   14.5137   24.8734   19.1923 H   0  0  0  0  0
   15.9290   23.9621   21.3136 H   0  0  0  0  0
   15.9520   25.7297   20.9944 H   0  0  0  0  0
   18.3338   26.2036   19.0568 H   0  0  0  0  0
   17.6333   22.7267   17.4586 H   0  0  0  0  0
   18.6135   23.7002   16.3105 H   0  0  0  0  0
   15.9152   24.0175   16.6012 H   0  0  0  0  0
   17.0119   25.3690   16.1567 H   0  0  0  0  0
   16.1308   26.3135   18.0971 H   0  0  0  0  0
   14.2336   19.1346   15.3870 H   0  0  0  0  0
   15.7869   19.3025   16.2735 H   0  0  0  0  0
   17.3573   20.7797   15.3919 H   0  0  0  0  0
   18.0267   22.6770   13.9444 H   0  0  0  0  0
   16.2475   23.9584   12.7939 H   0  0  0  0  0
   13.9130   23.3692   13.0705 H   0  0  0  0  0
   13.2335   21.5081   14.4949 H   0  0  0  0  0
  2  1  1  0  0  0
  3  2  4  0  0  0
  7  2  4  0  0  0
  4  3  4  0  0  0
  5  4  4  0  0  0
  5  6  4  0  0  0
  8  5  1  0  0  0
  6  7  4  0  0  0
  8  9  2  0  0  0
  8 10  2  0  0  0
 11  8  1  0  0  0
 11 12  1  0  0  0
 16 11  1  0  0  0
 12 13  1  0  0  0
 13 14  1  0  0  0
 13 15  1  0  0  0
 17 16  1  0  0  0
 17 18  1  0  0  0
 19 17  1  0  0  0
 19 20  1  0  0  0
 32 19  1  0  0  0
 20 21  1  0  0  0
 21 22  2  0  0  0
 21 23  1  0  0  0
 23 24  1  0  0  0
 24 25  1  0  0  0
 24 31  1  0  0  0
 25 26  1  0  0  0
 27 26  1  0  0  0
 27 28  1  0  0  0
 31 27  1  0  0  0
 29 28  1  0  0  0
 30 29  1  0  0  0
 31 30  1  0  0  0
 38 32  1  0  0  0
 33 34  4  0  0  0
 33 38  4  0  0  0
 34 35  4  0  0  0
 35 36  4  0  0  0
 36 37  4  0  0  0
 37 38  4  0  0  0
  1 39  1  0  0  0
  1 40  1  0  0  0
  3 41  1  0  0  0
  4 42  1  0  0  0
  6 43  1  0  0  0
  7 44  1  0  0  0
 12 45  1  0  0  0
 12 46  1  0  0  0
 13 47  1  0  0  0
 14 48  1  0  0  0
 14 49  1  0  0  0
 14 50  1  0  0  0
 15 51  1  0  0  0
 15 52  1  0  0  0
 15 53  1  0  0  0
 16 54  1  0  0  0
 16 55  1  0  0  0
 17 56  1  0  0  0
 18 57  1  0  0  0
 19 58  1  0  0  0
 20 59  1  0  0  0
 24 60  1  0  0  0
 25 61  1  0  0  0
 25 62  1  0  0  0
 27 63  1  0  0  0
 29 64  1  0  0  0
 29 65  1  0  0  0
 30 66  1  0  0  0
 30 67  1  0  0  0
 31 68  1  0  0  0
 32 69  1  0  0  0
 32 70  1  0  0  0
 33 71  1  0  0  0
 34 72  1  0  0  0
 35 73  1  0  0  0
 36 74  1  0  0  0
 37 75  1  0  0  0
M  END
$$$$
